/*--------------------------------*- C++ -*----------------------------------*\
|       o          |                                                          |
|    o     o       | HELYX-OS                                                  |
|   o   O   o      | Version: v2.4.0                                           |
|    o     o       | Web:     http://www.engys.com                            |
|       o          |                                                          |
\*---------------------------------------------------------------------------*/
FoamFile
{
    version 2.0;
    format ascii;
    class volScalarField;
    location "0";
    object p;
}
dimensions [ 0 2 -2 0 0 0 0 ];
internalField uniform 0.0;
boundaryField
{
    Symmetry1
    {
        type empty;
    }

    Symmetry2
    {
        type empty;
    }

    FarField
    {
        type freestreamPressure;
        freestreamValue uniform 0;
    }

    Ejection_1
    {
        type freestreamPressure;
        freestreamValue uniform 0;
    }

    Ejection_2
    {
        type freestreamPressure;
        freestreamValue uniform 0;
    }

    Foil
    {
        type zeroGradient;
    }    
}
