/*--------------------------------*- C++ -*----------------------------------*\
  =========                 |
  \\      /  F ield         | OpenFOAM: The Open Source CFD Toolbox
   \\    /   O peration     | Website:  https://openfoam.org
    \\  /    A nd           | Version:  7  
     \\/     M anipulation  |
\*---------------------------------------------------------------------------*/
FoamFile
{
    version     2.0;
    format      ascii;
    class       dictionary;
    location    "system";
    object      sample;
}
// * * * * * * * * * * * * * * * * * * * * * * * * * * * * * * * * * * * * * //
type surfaces;
libs            ("libsampling.so");

interpolationScheme cell;

surfaceFormat       raw;

surfaces
(
    foilpressure
    {
        type         patch;
        patches    (Foil);
        interpolate    true;
    }
);

fields          (p);

// ************************************************************************* //
